%%%%%%%%%%%%%%%%%%%%%%%%%%%%%%%%%%%%%%%%%%%%%%%%%%%%%%%%%%%%%%%%%%%%%%%%%%%%%%%%%
%                                                                               %
% SU2 configuration file                                                        %
% Case description: 2D cylinder array with CHT couplings                        %
% Author: O. Burghardt, T. Economon                                             %
% Institution: Chair for Scientific Computing, TU Kaiserslautern                %
% Date: August 8, 2019                                                          %
% File Version 6.0.1 "Falcon"                                                   %
%                                                                               %
%%%%%%%%%%%%%%%%%%%%%%%%%%%%%%%%%%%%%%%%%%%%%%%%%%%%%%%%%%%%%%%%%%%%%%%%%%%%%%%%%
%
% Mathematical problem (DIRECT, CONTINUOUS_ADJOINT, DISCRETE_ADJOINT)
MATH_PROBLEM= DIRECT
%
% When do I have to use this again!? There was a rather nasty bug I recall if the option is nnot set
%KIND_INTERPOLATION= RADIAL_BASIS_FUNCTION
%          
SOLVER= MULTIPHYSICS
%
CONFIG_LIST= (configFluid.cfg, configSolid.cfg)
%
MARKER_ZONE_INTERFACE= ( fluid_solid_interface, solidB_outer_interface )
%
MARKER_CHT_INTERFACE= ( fluid_solid_interface, solidB_outer_interface )
%
TIME_DOMAIN = NO
%
SCREEN_OUTPUT= ( OUTER_ITER, BGS_PRESSURE[0], BGS_TEMPERATURE[0], BGS_TEMPERATURE[1], STREAMWISE_MASSFLOW[0], STREAMWISE_DP[0], AVG_TEMPERATURE[1] )
%
HISTORY_OUTPUT= ( ITER, BGS_RES[0], BGS_RES[1], RMS_RES[0], RMS_RES[1], STREAMWISE_PERIODIC[0], FLOW_COEFF[0], HEAT[1], LINSOL[0], LINSOL[1], HEAT[0] )
%
CONV_RESIDUAL_MINVAL= -26
%
% Number of total iterations
OUTER_ITER= 25
%
OUTPUT_WRT_FREQ= 300
%
SCREEN_WRT_FREQ_OUTER= 25
%
%CHT_ROBIN= NO
%
OUTPUT_FILES= (RESTART, PARAVIEW_MULTIBLOCK)
%
% Mesh input file
MESH_FILENAME= cht2D2zone.su2
%
%SPECIFIC_HEAT_CP = 871.0
%
% Mesh input file format (SU2, CGNS, NETCDF_ASCII)
MESH_FORMAT= SU2
%
GRAD_OBJFUNC_FILENAME= of_grad.csv
